@<TRIPOS>MOLECULE
EPO
   28    27     1     0     0
SMALL
resp


@<TRIPOS>ATOM
      1 H1           5.3680     0.1580    -0.2770 hc         1 EPO       0.094267
      2 C1           4.4260     0.7230    -0.2840 c3         1 EPO      -0.370630
      3 H2           4.4250     1.3900     0.5850 hc         1 EPO       0.094267
      4 H3           4.4130     1.3330    -1.1940 hc         1 EPO       0.094267
      5 C2           3.2220    -0.2210    -0.2300 c3         1 EPO       0.411703
      6 O1           3.2550    -1.0230     0.9550 oh         1 EPO      -0.620483
      7 H4           4.0780    -1.5360     0.9410 ho         1 EPO       0.374338
      8 H5           3.2430    -0.8750    -1.1200 h1         1 EPO      -0.037004
      9 C3           1.8910     0.5320    -0.2140 c3         1 EPO      -0.171787
     10 H6           1.8660     1.2120    -1.0770 hc         1 EPO       0.043507
     11 H7           1.8670     1.1610     0.6870 hc         1 EPO       0.043507
     12 C4           0.6630    -0.3860    -0.2380 c3         1 EPO       0.063540
     13 H8           0.7180    -1.0750     0.6130 hc         1 EPO      -0.009746
     14 H9           0.6930    -1.0100    -1.1440 hc         1 EPO      -0.009746
     15 C5          -0.6650     0.3810    -0.1990 c3         1 EPO       0.063540
     16 H10         -0.7130     1.0740    -1.0540 hc         1 EPO      -0.009746
     17 H11         -0.6820     1.0050     0.7080 hc         1 EPO      -0.009746
     18 C6          -1.8960    -0.5350    -0.2140 c3         1 EPO      -0.171787
     19 H12         -1.8780    -1.1900     0.6670 hc         1 EPO       0.043507
     20 H13         -1.8480    -1.1880    -1.0980 hc         1 EPO       0.043507
     21 C7          -3.2380     0.2130    -0.2360 c3         1 EPO       0.411703
     22 H14         -3.2700     0.8440    -1.1420 h1         1 EPO      -0.037004
     23 O2          -3.4090     1.0350     0.9240 oh         1 EPO      -0.620483
     24 H15         -2.7110     1.7080     0.9130 ho         1 EPO       0.374338
     25 C8          -4.4290    -0.7380    -0.2600 c3         1 EPO      -0.370630
     26 H16         -4.3980    -1.3800    -1.1470 hc         1 EPO       0.094267
     27 H17         -4.4230    -1.3740     0.6320 hc         1 EPO       0.094267
     28 H18         -5.3660    -0.1720    -0.2690 hc         1 EPO       0.094267
@<TRIPOS>BOND
     1     1     2 1   
     2     2     3 1   
     3     2     4 1   
     4     2     5 1   
     5     5     6 1   
     6     5     8 1   
     7     5     9 1   
     8     6     7 1   
     9     9    10 1   
    10     9    11 1   
    11     9    12 1   
    12    12    13 1   
    13    12    14 1   
    14    12    15 1   
    15    15    16 1   
    16    15    17 1   
    17    15    18 1   
    18    18    19 1   
    19    18    20 1   
    20    18    21 1   
    21    21    22 1   
    22    21    23 1   
    23    21    25 1   
    24    23    24 1   
    25    25    26 1   
    26    25    27 1   
    27    25    28 1   
@<TRIPOS>SUBSTRUCTURE
     1 EPO         1 TEMP              0 ****  ****    0 ROOT
